!-Generator IDFEditor 1.51
!-Option SortedOrder

!-NOTE: All comments with '!-' are ignored by the IDFEditor and are generated automatically.
!-      Use '!' comments if they need to be retained when using the IDFEditor.


!-   ===========  ALL OBJECTS IN CLASS: VERSION ===========

Version,
    9.4;                     !- Version Identifier


!-   ===========  ALL OBJECTS IN CLASS: SIMULATIONCONTROL ===========

SimulationControl,
    Yes,                     !- Do Zone Sizing Calculation
    Yes,                     !- Do System Sizing Calculation
    No,                      !- Do Plant Sizing Calculation
    No,                      !- Run Simulation for Sizing Periods
    Yes,                     !- Run Simulation for Weather File Run Periods
    ,                        !- Do HVAC Sizing Simulation for Sizing Periods
    ;                        !- Maximum Number of HVAC Sizing Simulation Passes


!-   ===========  ALL OBJECTS IN CLASS: BUILDING ===========

Building,
    Educational,             !- Name
    0,                       !- North Axis {deg}
    City,                    !- Terrain
    0.04,                    !- Loads Convergence Tolerance Value {W}
    0.4,                     !- Temperature Convergence Tolerance Value {deltaC}
    FullInteriorAndExteriorWithReflections,  !- Solar Distribution
    25,                      !- Maximum Number of Warmup Days
    6;                       !- Minimum Number of Warmup Days


!-   ===========  ALL OBJECTS IN CLASS: TIMESTEP ===========

Timestep,
    6;                       !- Number of Timesteps per Hour


!-   ===========  ALL OBJECTS IN CLASS: SITE:LOCATION ===========

Site:Location,
    Florianopolis,           !- Name
    -27.6,                   !- Latitude {deg}
    -48.55,                  !- Longitude {deg}
    -3,                      !- Time Zone {hr}
    2;                       !- Elevation {m}


!-   ===========  ALL OBJECTS IN CLASS: SIZINGPERIOD:WEATHERFILEDAYS ===========

SizingPeriod:WeatherFileDays,
    Anual,                   !- Name
    1,                       !- Begin Month
    1,                       !- Begin Day of Month
    12,                      !- End Month
    31,                      !- End Day of Month
    Monday,                  !- Day of Week for Start Day
    No,                      !- Use Weather File Daylight Saving Period
    No;                      !- Use Weather File Rain and Snow Indicators


!-   ===========  ALL OBJECTS IN CLASS: RUNPERIOD ===========

RunPeriod,
    AnoBase,                 !- Name
    1,                       !- Begin Month
    1,                       !- Begin Day of Month
    ,                        !- Begin Year
    12,                      !- End Month
    31,                      !- End Day of Month
    ,                        !- End Year
    Monday,                  !- Day of Week for Start Day
    No,                      !- Use Weather File Holidays and Special Days
    No,                      !- Use Weather File Daylight Saving Period
    No,                      !- Apply Weekend Holiday Rule
    No,                      !- Use Weather File Rain Indicators
    No;                      !- Use Weather File Snow Indicators


!-   ===========  ALL OBJECTS IN CLASS: SITE:GROUNDTEMPERATURE:UNDISTURBED:FINITEDIFFERENCE ===========

Site:GroundTemperature:Undisturbed:FiniteDifference,
    FiniteDiff,              !- Name
    1.5,                     !- Soil Thermal Conductivity {W/m-K}
    1250,                    !- Soil Density {kg/m3}
    1500,                    !- Soil Specific Heat {J/kg-K}
    30,                      !- Soil Moisture Content Volume Fraction {percent}
    50,                      !- Soil Moisture Content Volume Fraction at Saturation {percent}
    0.4;                     !- Evapotranspiration Ground Cover Parameter {dimensionless}


!-   ===========  ALL OBJECTS IN CLASS: SITE:GROUNDDOMAIN:SLAB ===========

Site:GroundDomain:Slab,
    GroundDomain,            !- Name
    10,                      !- Ground Domain Depth {m}
    1,                       !- Aspect Ratio
    5,                       !- Perimeter Offset {m}
    1.5,                     !- Soil Thermal Conductivity {W/m-K}
    1250,                    !- Soil Density {kg/m3}
    1500,                    !- Soil Specific Heat {J/kg-K}
    30,                      !- Soil Moisture Content Volume Fraction {percent}
    50,                      !- Soil Moisture Content Volume Fraction at Saturation {percent}
    Site:GroundTemperature:Undisturbed:FiniteDifference,  !- Undisturbed Ground Temperature Model Type
    FiniteDiff,              !- Undisturbed Ground Temperature Model Name
    0.4,                     !- Evapotranspiration Ground Cover Parameter
    GroundCoupledOSCM,       !- Slab Boundary Condition Model Name
    OnGrade,                 !- Slab Location
    ,                        !- Slab Material Name
    No,                      !- Horizontal Insulation
    ,                        !- Horizontal Insulation Material Name
    Full,                    !- Horizontal Insulation Extents
    ,                        !- Perimeter Insulation Width {m}
    No,                      !- Vertical Insulation
    ,                        !- Vertical Insulation Material Name
    ,                        !- Vertical Insulation Depth {m}
    Timestep,                !- Simulation Timestep
    1.6,                     !- Geometric Mesh Coefficient
    6;                       !- Mesh Density Parameter


!-   ===========  ALL OBJECTS IN CLASS: SCHEDULETYPELIMITS ===========

ScheduleTypeLimits,
    Atividade,               !- Name
    0,                       !- Lower Limit Value
    1000,                    !- Upper Limit Value
    Continuous,              !- Numeric Type
    activitylevel;           !- Unit Type

ScheduleTypeLimits,
    Fracao,                  !- Name
    0,                       !- Lower Limit Value
    1,                       !- Upper Limit Value
    Continuous,              !- Numeric Type
    percent;                 !- Unit Type

ScheduleTypeLimits,
    LIG_DESL,                !- Name
    0,                       !- Lower Limit Value
    1,                       !- Upper Limit Value
    Discrete,                !- Numeric Type
    control;                 !- Unit Type

ScheduleTypeLimits,
    Temperatura,             !- Name
    0,                       !- Lower Limit Value
    50,                      !- Upper Limit Value
    Continuous,              !- Numeric Type
    temperature;             !- Unit Type


!-   ===========  ALL OBJECTS IN CLASS: SCHEDULE:COMPACT ===========

Schedule:Compact,
    Sch_AtivAdm,             !- Name
    Atividade,               !- Schedule Type Limits Name
    Through: 12/31,          !- Field 1
    For:AllDays,             !- Field 2
    Until: 24:00,            !- Field 3
    108;                     !- Field 4

Schedule:Compact,
    Sch_AtivSala,            !- Name
    Atividade,               !- Schedule Type Limits Name
    Through: 12/31,          !- Field 1
    For:AllDays,             !- Field 2
    Until: 24:00,            !- Field 3
    108;                     !- Field 4

Schedule:Compact,
    Sch_IlumAdm,             !- Name
    Fracao,                  !- Schedule Type Limits Name
    Through:02/15,           !- Field 1
    For:alldays,             !- Field 2
    Until:24:00,             !- Field 3
    0,                       !- Field 4
    Through: 02/28,          !- Field 5
    For: weekdays,           !- Field 6
    Until: 8:00,             !- Field 7
    0,                       !- Field 8
    Until: 12:00,            !- Field 9
    .5,                      !- Field 10
    Until: 13:00,            !- Field 11
    0,                       !- Field 12
    Until: 16:00,            !- Field 13
    .5,                      !- Field 14
    Until: 24:00,            !- Field 15
    0,                       !- Field 16
    For: allotherdays,       !- Field 17
    Until: 24:00,            !- Field 18
    0,                       !- Field 19
    Through: 11/30,          !- Field 20
    For: weekdays,           !- Field 21
    Until: 7:00,             !- Field 22
    0,                       !- Field 23
    Until: 12:00,            !- Field 24
    1,                       !- Field 25
    Until: 14:00,            !- Field 26
    .5,                      !- Field 27
    Until: 19:00,            !- Field 28
    1,                       !- Field 29
    Until: 24:00,            !- Field 30
    0,                       !- Field 31
    For: allotherdays,       !- Field 32
    Until: 24:00,            !- Field 33
    0,                       !- Field 34
    Through: 12/31,          !- Field 35
    For: alldays,            !- Field 36
    Until: 24:00,            !- Field 37
    0;                       !- Field 38

Schedule:Compact,
    Sch_IlumSala8,           !- Name
    Fracao,                  !- Schedule Type Limits Name
    Through:02/28,           !- Field 1
    For:alldays,             !- Field 2
    Until:24:00,             !- Field 3
    0,                       !- Field 4
    Through: 11/30,          !- Field 5
    For: weekdays,           !- Field 6
    Until: 8:00,             !- Field 7
    0,                       !- Field 8
    Until: 12:00,            !- Field 9
    1,                       !- Field 10
    Until: 14:00,            !- Field 11
    0,                       !- Field 12
    Until: 18:00,            !- Field 13
    1,                       !- Field 14
    Until: 24:00,            !- Field 15
    0,                       !- Field 16
    For: allotherdays,       !- Field 17
    Until: 24:00,            !- Field 18
    0,                       !- Field 19
    Through: 12/31,          !- Field 20
    For: alldays,            !- Field 21
    Until: 24:00,            !- Field 22
    0;                       !- Field 23

Schedule:Compact,
    Sch_IlumTrans,           !- Name
    Fracao,                  !- Schedule Type Limits Name
    Through:02/28,           !- Field 1
    For:alldays,             !- Field 2
    Until:24:00,             !- Field 3
    0,                       !- Field 4
    Through: 11/30,          !- Field 5
    For: weekdays,           !- Field 6
    Until: 7:00,             !- Field 7
    0,                       !- Field 8
    Until: 12:00,            !- Field 9
    .5,                      !- Field 10
    Until: 14:00,            !- Field 11
    0,                       !- Field 12
    Until: 18:00,            !- Field 13
    .5,                      !- Field 14
    Until: 24:00,            !- Field 15
    0,                       !- Field 16
    For: allotherdays,       !- Field 17
    Until: 24:00,            !- Field 18
    0,                       !- Field 19
    Through: 12/31,          !- Field 20
    For:alldays,             !- Field 21
    Until: 24:00,            !- Field 22
    0;                       !- Field 23

Schedule:Compact,
    Sch_Infiltracao,         !- Name
    Fracao,                  !- Schedule Type Limits Name
    Through:12/31,           !- Field 1
    For:alldays,             !- Field 2
    Until:24:00,             !- Field 3
    1;                       !- Field 4

Schedule:Compact,
    Sch_OcupAdm,             !- Name
    Fracao,                  !- Schedule Type Limits Name
    Through:02/15,           !- Field 1
    For:alldays,             !- Field 2
    Until:24:00,             !- Field 3
    0,                       !- Field 4
    Through: 02/28,          !- Field 5
    For: weekdays,           !- Field 6
    Until: 8:00,             !- Field 7
    0,                       !- Field 8
    Until: 12:00,            !- Field 9
    .5,                      !- Field 10
    Until: 13:00,            !- Field 11
    0,                       !- Field 12
    Until: 16:00,            !- Field 13
    .5,                      !- Field 14
    Until: 24:00,            !- Field 15
    0,                       !- Field 16
    For: allotherdays,       !- Field 17
    Until: 24:00,            !- Field 18
    0,                       !- Field 19
    Through: 11/30,          !- Field 20
    For: weekdays,           !- Field 21
    Until: 7:00,             !- Field 22
    0,                       !- Field 23
    Until: 12:00,            !- Field 24
    1,                       !- Field 25
    Until: 14:00,            !- Field 26
    .5,                      !- Field 27
    Until: 19:00,            !- Field 28
    1,                       !- Field 29
    Until: 24:00,            !- Field 30
    0,                       !- Field 31
    For: allotherdays,       !- Field 32
    Until: 24:00,            !- Field 33
    0,                       !- Field 34
    Through: 12/31,          !- Field 35
    For: alldays,            !- Field 36
    Until: 24:00,            !- Field 37
    0;                       !- Field 38

Schedule:Compact,
    Sch_OcupSala8,           !- Name
    Fracao,                  !- Schedule Type Limits Name
    Through:02/28,           !- Field 1
    For:alldays,             !- Field 2
    Until:24:00,             !- Field 3
    0,                       !- Field 4
    Through: 11/30,          !- Field 5
    For: weekdays,           !- Field 6
    Until: 8:00,             !- Field 7
    0,                       !- Field 8
    Until: 12:00,            !- Field 9
    1,                       !- Field 10
    Until: 14:00,            !- Field 11
    0,                       !- Field 12
    Until: 18:00,            !- Field 13
    1,                       !- Field 14
    Until: 24:00,            !- Field 15
    0,                       !- Field 16
    For: allotherdays,       !- Field 17
    Until: 24:00,            !- Field 18
    0,                       !- Field 19
    Through: 12/31,          !- Field 20
    For: alldays,            !- Field 21
    Until: 24:00,            !- Field 22
    0;                       !- Field 23

Schedule:Compact,
    TempVentilacao,          !- Name
    Temperatura,             !- Schedule Type Limits Name
    Through: 12/31,          !- Field 1
    For: AllDays,            !- Field 2
    Until: 24:00,            !- Field 3
    19;                      !- Field 4

Schedule:Compact,
    ABERTURA,                !- Name
    Fracao,                  !- Schedule Type Limits Name
    Through: 12/31,          !- Field 1
    For: AllDays,            !- Field 2
    Until: 24:00,            !- Field 3
    1;                       !- Field 4

Schedule:Compact,
    Sch_OcupSala4,           !- Name
    Fracao,                  !- Schedule Type Limits Name
    Through:02/28,           !- Field 1
    For:alldays,             !- Field 2
    Until:24:00,             !- Field 3
    0,                       !- Field 4
    Through: 11/30,          !- Field 5
    For: weekdays,           !- Field 6
    Until: 8:00,             !- Field 7
    0,                       !- Field 8
    Until: 12:00,            !- Field 9
    1,                       !- Field 10
    Until: 14:00,            !- Field 11
    0,                       !- Field 12
    Until: 18:00,            !- Field 13
    0,                       !- Field 14
    Until: 24:00,            !- Field 15
    0,                       !- Field 16
    For: allotherdays,       !- Field 17
    Until: 24:00,            !- Field 18
    0,                       !- Field 19
    Through: 12/31,          !- Field 20
    For: alldays,            !- Field 21
    Until: 24:00,            !- Field 22
    0;                       !- Field 23

Schedule:Compact,
    Sch_IlumSala4,           !- Name
    Fracao,                  !- Schedule Type Limits Name
    Through:02/28,           !- Field 1
    For:alldays,             !- Field 2
    Until:24:00,             !- Field 3
    0,                       !- Field 4
    Through: 11/30,          !- Field 5
    For: weekdays,           !- Field 6
    Until: 8:00,             !- Field 7
    0,                       !- Field 8
    Until: 12:00,            !- Field 9
    1,                       !- Field 10
    Until: 14:00,            !- Field 11
    0,                       !- Field 12
    Until: 18:00,            !- Field 13
    0,                       !- Field 14
    Until: 24:00,            !- Field 15
    0,                       !- Field 16
    For: allotherdays,       !- Field 17
    Until: 24:00,            !- Field 18
    0,                       !- Field 19
    Through: 12/31,          !- Field 20
    For: alldays,            !- Field 21
    Until: 24:00,            !- Field 22
    0;                       !- Field 23


!-   ===========  ALL OBJECTS IN CLASS: SCHEDULE:CONSTANT ===========

Schedule:Constant,
    HVAC_Administrativo01,   !- Name
    LIG_DESL,                !- Schedule Type Limits Name
    0;                       !- Hourly Value

Schedule:Constant,
    HVAC_Administrativo02,   !- Name
    LIG_DESL,                !- Schedule Type Limits Name
    0;                       !- Hourly Value

Schedule:Constant,
    HVAC_Biblioteca,         !- Name
    LIG_DESL,                !- Schedule Type Limits Name
    0;                       !- Hourly Value

Schedule:Constant,
    HVAC_Diretoria,          !- Name
    LIG_DESL,                !- Schedule Type Limits Name
    0;                       !- Hourly Value

Schedule:Constant,
    HVAC_LabInformatica,     !- Name
    LIG_DESL,                !- Schedule Type Limits Name
    0;                       !- Hourly Value

Schedule:Constant,
    HVAC_Sala01,             !- Name
    LIG_DESL,                !- Schedule Type Limits Name
    0;                       !- Hourly Value

Schedule:Constant,
    HVAC_Sala02,             !- Name
    LIG_DESL,                !- Schedule Type Limits Name
    0;                       !- Hourly Value

Schedule:Constant,
    HVAC_Sala03,             !- Name
    LIG_DESL,                !- Schedule Type Limits Name
    0;                       !- Hourly Value

Schedule:Constant,
    HVAC_Sala04,             !- Name
    LIG_DESL,                !- Schedule Type Limits Name
    0;                       !- Hourly Value

Schedule:Constant,
    HVAC_Sala05,             !- Name
    LIG_DESL,                !- Schedule Type Limits Name
    0;                       !- Hourly Value

Schedule:Constant,
    HVAC_Sala06,             !- Name
    LIG_DESL,                !- Schedule Type Limits Name
    0;                       !- Hourly Value

Schedule:Constant,
    HVAC_Sala07,             !- Name
    LIG_DESL,                !- Schedule Type Limits Name
    0;                       !- Hourly Value

Schedule:Constant,
    HVAC_Sala08,             !- Name
    LIG_DESL,                !- Schedule Type Limits Name
    0;                       !- Hourly Value

Schedule:Constant,
    HVAC_Sala09,             !- Name
    LIG_DESL,                !- Schedule Type Limits Name
    0;                       !- Hourly Value

Schedule:Constant,
    HVAC_Sala10,             !- Name
    LIG_DESL,                !- Schedule Type Limits Name
    0;                       !- Hourly Value

Schedule:Constant,
    HVAC_Sala11,             !- Name
    LIG_DESL,                !- Schedule Type Limits Name
    0;                       !- Hourly Value

Schedule:Constant,
    HVAC_Sala12,             !- Name
    LIG_DESL,                !- Schedule Type Limits Name
    0;                       !- Hourly Value

Schedule:Constant,
    HVAC_Sala13,             !- Name
    LIG_DESL,                !- Schedule Type Limits Name
    0;                       !- Hourly Value

Schedule:Constant,
    HVAC_Sala14,             !- Name
    LIG_DESL,                !- Schedule Type Limits Name
    0;                       !- Hourly Value

Schedule:Constant,
    HVAC_Secretaria,         !- Name
    LIG_DESL,                !- Schedule Type Limits Name
    0;                       !- Hourly Value

Schedule:Constant,
    VN_Administrativo01,     !- Name
    LIG_DESL,                !- Schedule Type Limits Name
    1;                       !- Hourly Value

Schedule:Constant,
    VN_Administrativo02,     !- Name
    LIG_DESL,                !- Schedule Type Limits Name
    1;                       !- Hourly Value

Schedule:Constant,
    VN_Banheiro01,           !- Name
    LIG_DESL,                !- Schedule Type Limits Name
    1;                       !- Hourly Value

Schedule:Constant,
    VN_Banheiro02,           !- Name
    LIG_DESL,                !- Schedule Type Limits Name
    1;                       !- Hourly Value

Schedule:Constant,
    VN_Banheiro03,           !- Name
    LIG_DESL,                !- Schedule Type Limits Name
    1;                       !- Hourly Value

Schedule:Constant,
    VN_Banheiro04,           !- Name
    LIG_DESL,                !- Schedule Type Limits Name
    1;                       !- Hourly Value

Schedule:Constant,
    VN_Biblioteca,           !- Name
    LIG_DESL,                !- Schedule Type Limits Name
    1;                       !- Hourly Value

Schedule:Constant,
    VN_Corredor,             !- Name
    LIG_DESL,                !- Schedule Type Limits Name
    1;                       !- Hourly Value

Schedule:Constant,
    VN_Cozinha,              !- Name
    LIG_DESL,                !- Schedule Type Limits Name
    1;                       !- Hourly Value

Schedule:Constant,
    VN_Deposito,             !- Name
    LIG_DESL,                !- Schedule Type Limits Name
    1;                       !- Hourly Value

Schedule:Constant,
    VN_Diretoria,            !- Name
    LIG_DESL,                !- Schedule Type Limits Name
    1;                       !- Hourly Value

Schedule:Constant,
    VN_LabInformatica,       !- Name
    LIG_DESL,                !- Schedule Type Limits Name
    1;                       !- Hourly Value

Schedule:Constant,
    VN_Recepcao,             !- Name
    LIG_DESL,                !- Schedule Type Limits Name
    1;                       !- Hourly Value

Schedule:Constant,
    VN_Refeitorio,           !- Name
    LIG_DESL,                !- Schedule Type Limits Name
    1;                       !- Hourly Value

Schedule:Constant,
    VN_Sala01,               !- Name
    LIG_DESL,                !- Schedule Type Limits Name
    1;                       !- Hourly Value

Schedule:Constant,
    VN_Sala02,               !- Name
    LIG_DESL,                !- Schedule Type Limits Name
    1;                       !- Hourly Value

Schedule:Constant,
    VN_Sala03,               !- Name
    LIG_DESL,                !- Schedule Type Limits Name
    1;                       !- Hourly Value

Schedule:Constant,
    VN_Sala04,               !- Name
    LIG_DESL,                !- Schedule Type Limits Name
    1;                       !- Hourly Value

Schedule:Constant,
    VN_Sala05,               !- Name
    LIG_DESL,                !- Schedule Type Limits Name
    1;                       !- Hourly Value

Schedule:Constant,
    VN_Sala06,               !- Name
    LIG_DESL,                !- Schedule Type Limits Name
    1;                       !- Hourly Value

Schedule:Constant,
    VN_Sala07,               !- Name
    LIG_DESL,                !- Schedule Type Limits Name
    1;                       !- Hourly Value

Schedule:Constant,
    VN_Sala08,               !- Name
    LIG_DESL,                !- Schedule Type Limits Name
    1;                       !- Hourly Value

Schedule:Constant,
    VN_Sala09,               !- Name
    LIG_DESL,                !- Schedule Type Limits Name
    1;                       !- Hourly Value

Schedule:Constant,
    VN_Sala10,               !- Name
    LIG_DESL,                !- Schedule Type Limits Name
    1;                       !- Hourly Value

Schedule:Constant,
    VN_Sala11,               !- Name
    LIG_DESL,                !- Schedule Type Limits Name
    1;                       !- Hourly Value

Schedule:Constant,
    VN_Sala12,               !- Name
    LIG_DESL,                !- Schedule Type Limits Name
    1;                       !- Hourly Value

Schedule:Constant,
    VN_Sala13,               !- Name
    LIG_DESL,                !- Schedule Type Limits Name
    1;                       !- Hourly Value

Schedule:Constant,
    VN_Sala14,               !- Name
    LIG_DESL,                !- Schedule Type Limits Name
    1;                       !- Hourly Value

Schedule:Constant,
    VN_Secretaria,           !- Name
    LIG_DESL,                !- Schedule Type Limits Name
    1;                       !- Hourly Value

Schedule:Constant,
    Always On Discrete,      !- Name
    LIG_DESL,                !- Schedule Type Limits Name
    1;                       !- Hourly Value

Schedule:Constant,
    Always Off Discrete,     !- Name
    LIG_DESL,                !- Schedule Type Limits Name
    0;                       !- Hourly Value

Schedule:Constant,
    Always On Continuous,    !- Name
    LIG_DESL,                !- Schedule Type Limits Name
    1;                       !- Hourly Value


!-   ===========  ALL OBJECTS IN CLASS: MATERIAL ===========

Material,
    argamassa_interna,       !- Name
    Rough,                   !- Roughness
    0.025,                   !- Thickness {m}
    1.15,                    !- Conductivity {W/m-K}
    2000,                    !- Density {kg/m3}
    1000,                    !- Specific Heat {J/kg-K}
    0.9,                     !- Thermal Absorptance
    0.5,                     !- Solar Absorptance
    0.5;                     !- Visible Absorptance

Material,
    argamassa_laje_pre-moldada,  !- Name
    Rough,                   !- Roughness
    0.01,                    !- Thickness {m}
    1.15,                    !- Conductivity {W/m-K}
    2000,                    !- Density {kg/m3}
    1000,                    !- Specific Heat {J/kg-K}
    0.9,                     !- Thermal Absorptance
    0.2,                     !- Solar Absorptance
    0.2;                     !- Visible Absorptance

Material,
    Ceramica telha pre-moldada,  !- Name
    Rough,                   !- Roughness
    0.01,                    !- Thickness {m}
    1.05,                    !- Conductivity {W/m-K}
    2000,                    !- Density {kg/m3}
    920,                     !- Specific Heat {J/kg-K}
    0.9,                     !- Thermal Absorptance
    0.65,                    !- Solar Absorptance
    0.65;                    !- Visible Absorptance

Material,
    Ceramica_laje_tavela(24x7x20),  !- Name
    Rough,                   !- Roughness
    0.012,                   !- Thickness {m}
    1.05,                    !- Conductivity {W/m-K}
    2000,                    !- Density {kg/m3}
    920,                     !- Specific Heat {J/kg-K}
    0.9,                     !- Thermal Absorptance
    0.7,                     !- Solar Absorptance
    0.7;                     !- Visible Absorptance

Material,
    Ceramica_tijolo(14x19x29),  !- Name
    Rough,                   !- Roughness
    0.0165,                  !- Thickness {m}
    0.9,                     !- Conductivity {W/m-K}
    1600,                    !- Density {kg/m3}
    920,                     !- Specific Heat {J/kg-K}
    0.9,                     !- Thermal Absorptance
    0.7,                     !- Solar Absorptance
    0.7;                     !- Visible Absorptance

Material,
    ConcretoLajeMacica,      !- Name
    Rough,                   !- Roughness
    0.1,                     !- Thickness {m}
    1.15,                    !- Conductivity {W/m-K}
    2200,                    !- Density {kg/m3}
    1000,                    !- Specific Heat {J/kg-K}
    0.9,                     !- Thermal Absorptance
    0.7,                     !- Solar Absorptance
    0.7;                     !- Visible Absorptance

Material,
    Concreto_laje_pre-moldada,  !- Name
    Rough,                   !- Roughness
    0.04,                    !- Thickness {m}
    1.75,                    !- Conductivity {W/m-K}
    2200,                    !- Density {kg/m3}
    1000,                    !- Specific Heat {J/kg-K}
    0.9,                     !- Thermal Absorptance
    0.7,                     !- Solar Absorptance
    0.7;                     !- Visible Absorptance

Material,
    ContrapisoLaje2cm,       !- Name
    Rough,                   !- Roughness
    0.02,                    !- Thickness {m}
    1.15,                    !- Conductivity {W/m-K}
    2000,                    !- Density {kg/m3}
    1000,                    !- Specific Heat {J/kg-K}
    0.9,                     !- Thermal Absorptance
    0.7,                     !- Solar Absorptance
    0.7;                     !- Visible Absorptance

Material,
    Madeira30mm,             !- Name
    MediumRough,             !- Roughness
    0.03,                    !- Thickness {m}
    0.29,                    !- Conductivity {W/m-K}
    800,                     !- Density {kg/m3}
    1340,                    !- Specific Heat {J/kg-K}
    0.9,                     !- Thermal Absorptance
    0.7,                     !- Solar Absorptance
    0.7;                     !- Visible Absorptance

Material,
    Piso_ceramico,           !- Name
    Rough,                   !- Roughness
    0.0075,                  !- Thickness {m}